LTspice 24.0.12 for Windows
Circuit: * \\wsl.localhost\Ubuntu\home\minstrel\kinetika\project_mayhem\power_electronics\equivalent_circuit\resonant_H_bridge.asc
Start Time: Wed Oct 16 04:02:20 2024
solver = Normal
Maximum thread count: 20
tnom = 27
temp = 27
method = modified trap
.OP point found by inspection.
Total elapsed time: 0.380 seconds.

