LTspice 24.0.12 for Windows
Circuit: * \\wsl$\Ubuntu\home\minstrel\kinetika\project_mayhem\power_electronics\equivalent_circuit\resonant_H_bridge_old_coil.asc
Start Time: Wed Oct 23 01:19:31 2024
solver = Normal
Maximum thread count: 20
tnom = 27
temp = 27
method = modified trap
.OP point found by inspection.
Total elapsed time: 0.280 seconds.

